Circuit: * C:\Users\augus\Documents\GitSpace\Ionizer\Simulation.asc

.OP point found by inspection.

Date: Mon Dec 16 13:38:44 2019
Total elapsed time: 0.936 seconds.

tnom = 27
temp = 27
method = modified trap
totiter = 138715
traniter = 138715
tranpoints = 30047
accept = 22511
rejected = 7536
matrix size = 12
fillins = 0
solver = Normal
Matrix Compiler1: 1.15 KB object code size  0.4/0.3/[0.2]
Matrix Compiler2: 1.07 KB object code size  0.3/0.3/[0.2]

